192
Lattice="12.420000 0.000000 0.000000 0.000000 12.420000 0.000000 0.000000 0.000000 12.420000" Properties=species:S:1:pos:R:3 
O 1.27480 7.99837 4.71444 
H 1.82467 7.24296 4.87760 
H 0.43189 7.52909 4.69873 
O 3.56533 4.44522 7.37399 
H 4.14163 4.30810 6.64112 
H 4.05680 5.08170 7.89942 
O 4.88336 11.99100 7.57838 
H 5.73511 11.85296 7.12383 
H 4.66377 11.18773 8.08448 
O 6.98420 3.07332 10.93724 
H 6.23917 2.97256 10.32195 
H 7.70333 3.43031 10.43200 
O 11.24281 6.51540 11.91999 
H 12.17269 6.23986 12.11788 
H 10.85004 6.91992 0.27243 
O 10.15372 1.35158 11.85701 
H 9.63287 2.12584 12.05294 
H 9.55160 0.73843 11.44306 
O 11.03973 10.92261 6.03944 
H 11.17854 10.72759 5.08500 
H 11.86789 10.74523 6.47609 
O 5.46044 8.94887 1.20244 
H 6.01881 9.47336 0.55070 
H 6.05973 8.35252 1.58802 
O 7.27463 4.41881 3.83996 
H 7.89059 4.72874 4.51700 
H 7.79243 3.74202 3.40236 
O 11.01153 6.04256 8.99763 
H 11.31702 6.44294 9.79397 
H 11.68195 5.34990 8.89595 
O 4.56735 5.09712 10.05540 
H 3.91188 4.43493 10.26956 
H 4.17528 5.88368 10.47894 
O 2.23134 5.80747 12.15482 
H 2.40551 5.26689 0.50133 
H 2.84197 6.57237 12.07595 
O 5.12384 7.67109 5.67286 
H 4.57449 6.94154 5.33281 
H 4.71970 8.51325 5.36677 
O 11.77391 0.87451 1.88439 
H 11.18182 1.02075 1.13889 
H 11.18883 0.52443 2.56948 
O 7.21541 0.81661 0.69926 
H 6.30231 0.56822 0.78791 
H 7.23283 1.32949 12.29249 
O 9.02476 11.14333 1.28533 
H 8.35335 10.64583 1.80283 
H 8.53763 11.92517 0.84349 
O 7.77276 12.16916 10.17202 
H 7.15926 0.24856 9.65682 
H 8.51869 11.98026 9.52636 
O 4.40356 9.51964 9.14448 
H 5.08143 9.79048 9.84420 
H 3.62164 9.85274 9.60633 
O 2.78204 12.38780 5.95108 
H 3.63580 0.02416 6.51150 
H 2.27748 11.59907 6.20620 
O 7.41601 6.66026 2.22058 
H 7.28135 5.75574 2.30869 
H 7.86437 6.72486 1.38811 
O 10.42402 9.67516 11.84215 
H 11.09470 10.29297 11.48277 
H 9.86431 10.25743 12.39421 
O 2.21688 3.34204 10.22261 
H 1.27765 3.21370 10.16180 
H 2.49492 2.94351 9.38888 
O 6.00281 4.09320 1.00020 
H 5.35368 3.68587 0.42398 
H 5.94408 3.55228 1.76828 
O 1.28170 10.17108 6.83267 
H 1.58116 9.95931 7.69944 
H 1.48420 9.36119 6.28328 
O 6.17004 7.12663 8.53528 
H 6.30299 7.47161 7.61277 
H 5.51159 7.73629 8.90584 
O 0.65171 3.73546 6.89014 
H 0.08823 3.17886 7.46714 
H 1.14293 3.17210 6.33019 
O 3.19713 5.91531 4.82091 
H 3.43691 5.65245 3.91036 
H 2.77987 5.24811 5.26083 
O 12.05683 2.48424 10.15753 
H 11.60281 2.69632 9.33808 
H 11.51664 2.12912 10.81320 
O 10.52452 1.76933 4.66942 
H 10.03698 2.08425 3.90568 
H 10.03607 1.00943 4.91749 
O 6.68853 9.62198 10.72771 
H 7.38896 9.08022 10.39041 
H 7.04511 10.49019 10.72567 
O 5.29420 3.01440 5.32944 
H 5.91805 2.33422 5.51205 
H 5.78823 3.76615 4.94631 
O 7.56002 8.15444 4.63989 
H 6.60310 7.93369 4.94064 
H 7.52084 7.72822 3.72902 
O 1.80299 6.53530 8.62757 
H 1.73155 5.90305 9.37145 
H 1.93102 6.05656 7.77157 
O 10.51458 7.63381 2.12925 
H 10.71864 8.51154 2.45233 
H 9.70077 7.31775 2.59122 
O 8.75666 8.12968 9.63587 
H 9.07869 8.14603 8.73877 
H 9.43157 8.50610 10.25578 
O 9.19814 8.67257 6.67163 
H 9.90531 9.26559 6.38331 
H 8.72753 8.37605 5.93564 
O 0.06734 4.36785 2.59829 
H 0.74898 5.00117 2.80779 
H 0.16022 3.69493 3.30612 
O 11.85611 11.03082 9.64889 
H 11.14082 10.77034 9.05571 
H 0.12724 10.31574 9.59264 
O 4.18100 7.76936 11.30876 
H 4.59393 8.00446 12.20808 
H 4.46539 8.49203 10.72748 
O 4.72071 6.38770 2.12993 
H 5.65097 6.38706 2.43991 
H 4.93324 6.11848 1.22833 
O 4.51393 9.94419 4.07331 
H 3.78189 10.42159 4.59125 
H 4.04753 9.64736 3.32288 
O 2.54733 2.63357 4.82377 
H 2.42200 1.76687 5.30316 
H 3.51386 2.77444 4.76433 
O 6.94620 0.37844 5.88666 
H 6.92769 12.04184 5.32052 
H 7.60734 0.17478 6.56351 
O 1.39753 0.96140 8.39689 
H 1.85921 0.40416 7.75971 
H 0.70098 0.37899 8.85483 
O 7.00945 6.33456 11.73897 
H 7.43328 6.46492 10.87287 
H 6.32723 5.71956 11.67068 
O 9.41917 4.02610 0.00081 
H 8.77430 4.70495 12.29628 
H 10.24149 4.49941 12.21646 
O 8.90832 2.57856 2.33285 
H 9.37033 3.29670 1.81692 
H 8.37947 2.02242 1.75369 
O 0.88553 9.83497 12.37067 
H 1.50213 9.67099 0.66228 
H 0.15387 9.20165 0.18533 
O 6.93493 10.95808 4.03939 
H 6.00977 10.73633 4.19446 
H 7.32233 10.12174 4.29305 
O 4.56360 12.01988 1.53311 
H 3.73008 12.39634 1.73874 
H 4.71861 11.38015 2.24946 
O 11.20545 10.36105 2.99793 
H 10.41451 10.65923 2.50790 
H 11.98937 10.51592 2.42448 
O 10.31066 3.21869 8.01803 
H 9.56573 3.66467 8.39802 
H 10.15463 3.31504 7.05222 
O 12.15699 6.31850 6.33906 
H 12.31564 5.35904 6.50920 
H 12.03778 6.65619 7.24355 
O 7.20590 10.30649 7.94074 
H 7.12431 10.22485 8.94727 
H 7.72035 9.54130 7.71576 
O 2.43076 8.57999 1.94249 
H 2.00668 8.50033 2.80338 
H 2.89219 7.74786 1.85236 
O 2.28346 0.67082 2.53674 
H 2.56071 1.38622 3.09949 
H 1.40748 0.84782 2.23688 
O 1.59407 0.18034 11.29318 
H 1.24338 0.47858 10.52097 
H 1.04828 11.83742 11.47757 
O 3.75796 10.80227 11.52459 
H 4.22303 11.17454 12.31992 
H 3.00964 11.40785 11.42750 
O 8.19448 5.18524 8.98272 
H 7.43924 5.71266 8.63539 
H 8.86355 5.76352 9.26598 
O 4.53135 2.21346 8.99941 
H 4.51051 1.34359 8.61226 
H 4.53512 2.86100 8.25460 
O 9.44951 5.43991 6.40986 
H 10.31424 5.84433 6.24601 
H 9.27312 5.68543 7.30283 
O 1.28889 9.17881 9.70845 
H 1.36795 9.31577 10.69251 
H 1.37241 8.23509 9.46722 
O 9.11086 12.18730 7.58935 
H 9.68718 11.77249 6.88723 
H 8.57224 11.39001 7.77321 
O 3.49269 3.09298 0.29783 
H 3.02029 3.11071 11.87772 
H 3.03532 2.45200 0.82732 
